examples/data/case39.m
function mpc = case39
mpc.version = '2';
mpc.baseMVA = 100;
mpc.bus = [
	1	1	97.60000000000001	44.2	0	0	1	1	0	345	1	1.06	0.94;
	2	1	0	0	0	0	1	1	0	345	1	1.06	0.94;
	3	1	322	2.4	0	0	1	1	0	345	1	1.06	0.94;
	4	1	500	184	0	0	1	1	0	345	1	1.06	0.94;
	5	1	0	0	0	0	1	1	0	345	1	1.06	0.94;
	6	1	0	0	0	0	1	1	0	345	1	1.06	0.94;
	7	1	233.8	84	0	0	1	1	0	345	1	1.06	0.94;
	8	1	522	176.6	0	0	1	1	0	345	1	1.06	0.94;
	9	1	6.5	-66.6	0	0	1	1	0	345	1	1.06	0.94;
	10	1	0	0	0	0	1	1	0	345	1	1.06	0.94;
	11	1	0	0	0	0	1	1	0	345	1	1.06	0.94;
	12	1	8.53	88	0	0	1	1	0	345	1	1.06	0.94;
	13	1	0	0	0	0	1	1	0	345	1	1.06	0.94;
	14	1	0	0	0	0	1	1	0	345	1	1.06	0.94;
	15	1	320	153	0	0	1	1	0	345	1	1.06	0.94;
	16	1	329	32.3	0	0	1	1	0	345	1	1.06	0.94;
	17	1	0	0	0	0	1	1	0	345	1	1.06	0.94;
	18	1	158	30	0	0	1	1	0	345	1	1.06	0.94;
	19	1	0	0	0	0	1	1	0	345	1	1.06	0.94;
	20	1	680	103	0	0	1	1	0	345	1	1.06	0.94;
	21	1	274	115	0	0	1	1	0	345	1	1.06	0.94;
	22	1	0	0	0	0	1	1	0	345	1	1.06	0.94;
	23	1	247.5	84.60000000000001	0	0	1	1	0	345	1	1.06	0.94;
	24	1	308.6	-92.2	0	0	1	1	0	345	1	1.06	0.94;
	25	1	224	47.2	0	0	1	1	0	345	1	1.06	0.94;
	26	1	139	17	0	0	1	1	0	345	1	1.06	0.94;
	27	1	281	75.5	0	0	1	1	0	345	1	1.06	0.94;
	28	1	206	27.6	0	0	1	1	0	345	1	1.06	0.94;
	29	1	283.5	26.9	0	0	1	1	0	345	1	1.06	0.94;
	30	2	0	0	0	0	1	1	0	345	1	1.06	0.94;
	31	3	9.2	4.6	0	0	1	1	0	345	1	1.06	0.94;
	32	2	0	0	0	0	1	1	0	345	1	1.06	0.94;
	33	2	0	0	0	0	1	1	0	345	1	1.06	0.94;
	34	2	0	0	0	0	1	1	0	345	1	1.06	0.94;
	35	2	0	0	0	0	1	1	0	345	1	1.06	0.94;
	36	2	0	0	0	0	1	1	0	345	1	1.06	0.94;
	37	2	0	0	0	0	1	1	0	345	1	1.06	0.94;
	38	2	0	0	0	0	1	1	0	345	1	1.06	0.94;
	39	2	1104	250	0	0	1	1	0	345	1	1.06	0.94;
];
mpc.branch = [
	1	2	0.0034999999999999996	0.0411	0.6987000000000001	600	0	0	0	0	1	-360	360;
	1	39	0.001	0.025	0.7500000000000001	1000	0	0	0	0	1	-360	360;
	2	3	0.0013000000000000002	0.015099999999999999	0.25720000000000004	500.00000000000296	0	0	0	0	1	-360	360;
	2	25	0.006999999999999999	0.0086	0.146	500.00000000000296	0	0	0	0	1	-360	360;
	3	4	0.0013000000000000002	0.0213	0.2214000000000001	500.00000000000296	0	0	0	0	1	-360	360;
	3	18	0.0011	0.0133	0.2138	500.00000000000296	0	0	0	0	1	-360	360;
	4	5	0.0008	0.0128	0.13420000000000004	600	0	0	0	0	1	-360	360;
	4	14	0.0008	0.0129	0.1382	500.00000000000296	0	0	0	0	1	-360	360;
	5	6	0.0002	0.0026000000000000003	0.04340000000000001	1200	0	0	0	0	1	-360	360;
	5	8	0.0008	0.0112	0.14760000000000006	900.000000000003	0	0	0	0	1	-360	360;
	6	7	0.0006	0.0092	0.113	900.000000000003	0	0	0	0	1	-360	360;
	6	11	0.0007	0.008199999999999999	0.1389	480.0000000000012	0	0	0	0	1	-360	360;
	7	8	0.0004	0.0046	0.078	900.000000000003	0	0	0	0	1	-360	360;
	8	9	0.0023	0.0363	0.38040000000000007	900.000000000003	0	0	0	0	1	-360	360;
	9	39	0.001	0.025	1.2	900.000000000003	0	0	0	0	1	-360	360;
	10	11	0.0004	0.0043	0.07290000000000002	600	0	0	0	0	1	-360	360;
	10	13	0.0004	0.0043	0.07290000000000002	600	0	0	0	0	1	-360	360;
	13	14	0.0009000000000000001	0.0101	0.17230000000000006	600	0	0	0	0	1	-360	360;
	14	15	0.0018000000000000002	0.0217	0.366	600	0	0	0	0	1	-360	360;
	15	16	0.0009000000000000001	0.0094	0.17100000000000004	600	0	0	0	0	1	-360	360;
	16	17	0.0007	0.0089	0.13420000000000004	600	0	0	0	0	1	-360	360;
	16	19	0.0016	0.0195	0.304	600	0	0	0	0	1	-360	360;
	16	21	0.0008	0.0135	0.2548	600	0	0	0	0	1	-360	360;
	16	24	0.0003	0.0059	0.06800000000000002	600	0	0	0	0	1	-360	360;
	17	18	0.0007	0.008199999999999999	0.1319	600	0	0	0	0	1	-360	360;
	17	27	0.0013000000000000002	0.0173	0.32160000000000005	600	0	0	0	0	1	-360	360;
	21	22	0.0008	0.013999999999999999	0.2565	900.000000000003	0	0	0	0	1	-360	360;
	22	23	0.0006	0.0096	0.18460000000000001	600	0	0	0	0	1	-360	360;
	23	24	0.0022	0.034999999999999996	0.3610000000000001	600	0	0	0	0	1	-360	360;
	23	36	0.0005	0.027200000000000002	0	900.000000000003	0	0	0	0	1	-360	360;
	25	26	0.0032	0.0323	0.531	600	0	0	0	0	1	-360	360;
	26	27	0.0014	0.0147	0.2396	600	0	0	0	0	1	-360	360;
	26	28	0.0043	0.04739999999999999	0.7802000000000001	600	0	0	0	0	1	-360	360;
	26	29	0.005699999999999999	0.0625	1.029	600	0	0	0	0	1	-360	360;
	28	29	0.0014	0.015099999999999999	0.24900000000000003	600	0	0	0	0	1	-360	360;
	2	30	0	0.0181	0	900	0	0	1.025	0	1	-360	360;
	6	31	0	0.025	0	1800	0	0	1.07	0	1	-360	360;
	10	32	0	0.02	0	900	0	0	1.07	0	1	-360	360;
	12	11	0.0016	0.04350000000000001	0	500	0	0	1.006	0	1	-360	360;
	12	13	0.0016	0.04350000000000001	0	500	0	0	1.006	0	1	-360	360;
	19	20	0.0007	0.013800000000000005	0	900	0	0	1.06	0	1	-360	360;
	19	33	0.0007	0.014199999999999997	0	900	0	0	1.07	0	1	-360	360;
	20	34	0.0009	0.018000000000000002	0	900	0	0	1.009	0	1	-360	360;
	22	35	0	0.0143	0	900	0	0	1.025	0	1	-360	360;
	25	37	0.0006	0.023200000000000002	0	900	0	0	1.025	0	1	-360	360;
	29	38	0.0008	0.0156	0	1200	0	0	1.025	0	1	-360	360;
];
mpc.gen = [
	30	250	0	400	140	1.0499	100	1	1040	0;
	32	650	0	300	150	0.9841	100	1	725	0;
	33	632	0	250	0	0.9972	100	1	652	0;
	34	508	0	167	0	1.0123	100	1	508	0;
	35	650	0	300	-100	1.0494	100	1	687	0;
	36	560	0	240	0	1.0636	100	1	580	0;
	37	540	0	250	0	1.0275	100	1	564	0;
	38	830	0	300	-150	1.0265	100	1	865	0;
	39	1000	0	300	-100	1.03	100	1	1100	0;
	31	0	0	300	-100	0.982	100	1	646	0;
];
mpc.gencost = [
	2	0	0	3	0.01	0.3	0.2;
	2	0	0	3	0.01	0.3	0.2;
	2	0	0	3	0.01	0.3	0.2;
	2	0	0	3	0.01	0.3	0.2;
	2	0	0	3	0.01	0.3	0.2;
	2	0	0	3	0.01	0.3	0.2;
	2	0	0	3	0.01	0.3	0.2;
	2	0	0	3	0.01	0.3	0.2;
	2	0	0	3	0.01	0.3	0.2;
	2	0	0	3	0.01	0.3	0.2;
];
